Version 4
SHEET 1 880 680
WIRE 224 80 112 80
WIRE 336 80 288 80
WIRE 480 80 416 80
WIRE 816 80 528 80
WIRE 112 112 112 80
WIRE 480 160 368 160
WIRE 688 160 528 160
WIRE 816 160 688 160
WIRE 112 208 112 192
WIRE 368 208 368 160
WIRE 368 208 112 208
WIRE 112 224 112 208
WIRE 688 224 688 160
FLAG 112 224 0
FLAG 688 224 0
SYMBOL voltage 112 96 R0
WINDOW 3 -241 13 Left 2
WINDOW 123 0 0 Left 2
WINDOW 39 -243 37 Left 2
SYMATTR InstName V1
SYMATTR Value SINE(0 1 10000000)
SYMATTR SpiceLine Rser=50
SYMBOL cap 288 64 R90
WINDOW 0 0 32 VBottom 2
WINDOW 3 32 32 VTop 2
SYMATTR InstName C1
SYMATTR Value 50nF
SYMBOL res 432 64 R90
WINDOW 0 0 56 VBottom 2
WINDOW 3 32 56 VTop 2
SYMATTR InstName R1
SYMATTR Value 0
SYMBOL ind2 544 176 R180
WINDOW 0 -28 74 Left 2
WINDOW 3 -29 31 Left 2
SYMATTR InstName L2
SYMATTR Value 1µ
SYMATTR Type ind
SYMBOL res 800 64 R0
SYMATTR InstName R2
SYMATTR Value 50
SYMBOL ind2 464 176 M180
WINDOW 0 -26 83 Left 2
WINDOW 3 -16 45 Left 2
SYMATTR InstName L1
SYMATTR Value 1µ
SYMATTR Type ind
TEXT -418 336 Left 2 !.tran 0 0.000001 0
TEXT 456 64 Left 2 !K L1 L2 1
